[TITLE]
EPANET Example Network 3
Example showing how the percent of Lake water in a dual-source 
system changes over time.

[JUNCTIONS]
;ID              	Elev        	Demand      	Pattern         
 10              	147         	0.00        	pat2            	;
 15              	32          	0.00        	                	;
 20              	129         	0.00        	pat3            	;
 35              	12.5        	0.00        	                	;
 40              	131.9       	0.00        	pat4            	;
 50              	116.5       	0.00        	1               	;
 60              	0           	0.00        	                	;
 601             	0           	0.00        	                	;
 61              	0           	0.00        	                	;
 101             	42          	664.83      	pat2            	;
 103             	43          	466.20      	pat2            	;
 105             	28.5        	473.80      	pat2            	;
 107             	22          	191.24      	pat2            	;
 109             	20.3        	809.90      	pat2            	;
 111             	10          	496.79      	pat2            	;
 113             	2           	70.04       	pat2            	;
 115             	14          	182.35      	pat2            	;
 117             	13.6        	411.99      	pat3            	;
 119             	2           	616.46      	pat3            	;
 120             	0           	0.00        	pat3            	;
 121             	-2          	145.71      	pat3            	;
 123             	11          	0.00        	                	;
 125             	11          	159.60      	pat3            	;
 127             	56          	61.81       	pat3            	;
 129             	51          	0.00        	pat3            	;
 131             	6           	149.63      	pat3            	;
 139             	31          	20.62       	pat3            	;
 141             	4           	34.48       	pat3            	;
 143             	-4.5        	21.70       	pat3            	;
 145             	1           	96.71       	pat3            	;
 147             	18.5        	29.93       	pat3            	;
 149             	16          	94.75       	pat3            	;
 151             	33.5        	505.68      	pat3            	;
 153             	66.2        	154.60      	pat3            	;
 157             	13.1        	181.27      	pat3            	;
 159             	6           	144.62      	pat3            	;
 161             	4           	55.30       	pat4            	;
 163             	5           	32.97       	pat4            	;
 164             	5           	0.00        	pat4            	;
 166             	-2          	9.10        	pat4            	;
 167             	-5          	50.96       	pat4            	;
 169             	-5          	0.00        	pat4            	;
 171             	-4          	137.69      	pat4            	;
 173             	-4          	0.00        	pat4            	;
 177             	8           	203.60      	pat4            	;
 179             	8           	0.00        	pat4            	;
 181             	8           	0.00        	pat4            	;
 183             	11          	0.00        	pat4            	;
 184             	16          	0.00        	pat4            	;
 185             	16          	89.78       	pat4            	;
 187             	12.5        	0.00        	pat4            	;
 189             	4           	377.72      	pat4            	;
 191             	25          	286.65      	pat4            	;
 193             	18          	249.59      	pat4            	;
 195             	15.5        	0.00        	pat4            	;
 197             	23          	59.64       	pat2            	;
 199             	-2          	298.30      	1               	;
 201             	0.1         	111.53      	1               	;
 203             	2           	0.00        	                	;
 204             	21          	0.00        	pat4            	;
 205             	21          	163.40      	1               	;
 206             	1           	0.00        	1               	;
 207             	9           	173.48      	1               	;
 208             	16          	0.00        	1               	;
 209             	-2          	2.18        	1               	;
 211             	7           	21.68       	1               	;
 213             	7           	34.85       	1               	;
 215             	7           	230.48      	1               	;
 217             	6           	60.55       	1               	;
 219             	4           	103.30      	1               	;
 225             	8           	57.00       	1               	;
 229             	10.5        	160.45      	1               	;
 231             	5           	41.20       	1               	;
 237             	14          	39.03       	1               	;
 239             	13          	111.53      	1               	;
 241             	13          	0.00        	1               	;
 243             	14          	10.85       	1               	;
 247             	18          	175.95      	1               	;
 249             	18          	0.00        	1               	;
 251             	30          	60.40       	1               	;
 253             	36          	136.30      	1               	;
 255             	27          	100.98      	1               	;
 257             	17          	0.00        	pat3            	;
 259             	25          	0.00        	pat3            	;
 261             	0           	0.00        	pat3            	;
 263             	0           	0.00        	pat3            	;
 265             	0           	0.00        	pat4            	;
 267             	21          	0.00        	pat4            	;
 269             	0           	0.00        	pat4            	;
 271             	6           	0.00        	pat4            	;
 273             	8           	0.00        	1               	;
 275             	10          	0.00        	1               	;

[RESERVOIRS]
;ID              	Head        	Pattern         
 River           	220.0       	                	;
 Lake            	167.0       	                	;

[TANKS]
;ID              	Elevation   	InitLevel   	MinLevel    	MaxLevel    	Diameter    	MinVol      	VolCurve
 1               	131.9       	13.1        	0           	42.1        	85          	0           	                	;
 2               	116.5       	23.5        	0           	50.3        	50          	0           	                	;
 3               	129.0       	29.0        	0           	45.5        	164         	0           	                	;

[PIPES]
;ID              	Node1           	Node2           	Length      	Diameter    	Roughness   	MinorLoss   	Status
 20              	3               	20              	99          	99          	199         	0           	Open  	;
 40              	1               	40              	99          	99          	199         	0           	Open  	;
 50              	2               	50              	99          	99          	199         	0           	Open  	;
 60              	River           	60              	1231        	24          	140         	0           	Open  	;
 101             	10              	101             	14200       	18          	110         	0           	Open  	;
 103             	101             	103             	1350        	16          	130         	0           	Open  	;
 105             	101             	105             	2540        	12          	130         	0           	Open  	;
 107             	105             	107             	1470        	12          	130         	0           	Open  	;
 109             	103             	109             	3940        	16          	130         	0           	Open  	;
 111             	109             	111             	2000        	12          	130         	0           	Open  	;
 112             	115             	111             	1160        	12          	130         	0           	Open  	;
 113             	111             	113             	1680        	12          	130         	0           	Open  	;
 114             	115             	113             	2000        	8           	130         	0           	Open  	;
 115             	107             	115             	1950        	8           	130         	0           	Open  	;
 116             	113             	193             	1660        	12          	130         	0           	Open  	;
 117             	263             	105             	2725        	12          	130         	0           	Open  	;
 119             	115             	117             	2180        	12          	130         	0           	Open  	;
 120             	119             	120             	730         	12          	130         	0           	Open  	;
 121             	120             	117             	1870        	12          	130         	0           	Open  	;
 122             	121             	120             	2050        	8           	130         	0           	Open  	;
 123             	121             	119             	2000        	30          	141         	0           	Open  	;
 125             	123             	121             	1500        	30          	141         	0           	Open  	;
 129             	121             	125             	930         	24          	130         	0           	Open  	;
 131             	125             	127             	3240        	24          	130         	0           	Open  	;
 133             	20              	127             	785         	20          	130         	0           	Open  	;
 135             	127             	129             	900         	24          	130         	0           	Open  	;
 137             	129             	131             	6480        	16          	130         	0           	Open  	;
 145             	129             	139             	2750        	8           	130         	0           	Open  	;
 147             	139             	141             	2050        	8           	130         	0           	Open  	;
 149             	143             	141             	1400        	8           	130         	0           	Open  	;
 151             	15              	143             	1650        	8           	130         	0           	Open  	;
 153             	145             	141             	3510        	12          	130         	0           	Open  	;
 155             	147             	145             	2200        	12          	130         	0           	Open  	;
 159             	147             	149             	880         	12          	130         	0           	Open  	;
 161             	149             	151             	1020        	8           	130         	0           	Open  	;
 163             	151             	153             	1170        	12          	130         	0           	Open  	;
 169             	125             	153             	4560        	8           	130         	0           	Open  	;
 171             	119             	151             	3460        	12          	130         	0           	Open  	;
 173             	119             	157             	2080        	30          	141         	0           	Open  	;
 175             	157             	159             	2910        	30          	141         	0           	Open  	;
 177             	159             	161             	2000        	30          	141         	0           	Open  	;
 179             	161             	163             	430         	30          	141         	0           	Open  	;
 180             	163             	164             	150         	14          	130         	0           	Open  	;
 181             	164             	166             	490         	14          	130         	0           	Open  	;
 183             	265             	169             	590         	30          	141         	0           	Open  	;
 185             	167             	169             	60          	8           	130         	0           	Open  	;
 186             	187             	204             	99.9        	8           	130         	0           	Open  	;
 187             	169             	171             	1270        	30          	141         	0           	Open  	;
 189             	171             	173             	50          	30          	141         	0           	Open  	;
 191             	271             	171             	760         	24          	130         	0           	Open  	;
 193             	35              	181             	30          	24          	130         	0           	Open  	;
 195             	181             	177             	30          	12          	130         	0           	Open  	;
 197             	177             	179             	30          	12          	130         	0           	Open  	;
 199             	179             	183             	210         	12          	130         	0           	Open  	;
 201             	40              	179             	1190        	12          	130         	0           	Open  	;
 202             	185             	184             	99.9        	8           	130         	0           	Open  	;
 203             	183             	185             	510         	8           	130         	0           	Open  	;
 204             	184             	205             	4530.       	12          	130         	0           	Open  	;
 205             	204             	185             	1325.       	12          	130         	0           	Open  	;
 207             	189             	183             	1350        	12          	130         	0           	Open  	;
 209             	189             	187             	500         	8           	130         	0           	Open  	;
 211             	169             	269             	646         	12          	130         	0           	Open  	;
 213             	191             	187             	2560        	12          	130         	0           	Open  	;
 215             	267             	189             	1230        	12          	130         	0           	Open  	;
 217             	191             	193             	520         	12          	130         	0           	Open  	;
 219             	193             	195             	360         	12          	130         	0           	Open  	;
 221             	161             	195             	2300        	8           	130         	0           	Open  	;
 223             	197             	191             	1150        	12          	130         	0           	Open  	;
 225             	111             	197             	2790        	12          	130         	0           	Open  	;
 229             	173             	199             	4000        	24          	141         	0           	Open  	;
 231             	199             	201             	630         	24          	141         	0           	Open  	;
 233             	201             	203             	120         	24          	130         	0           	Open  	;
 235             	199             	273             	725         	12          	130         	0           	Open  	;
 237             	205             	207             	1200        	12          	130         	0           	Open  	;
 238             	207             	206             	450         	12          	130         	0           	Open  	;
 239             	275             	207             	1430        	12          	130         	0           	Open  	;
 240             	206             	208             	510         	12          	130         	0           	Open  	;
 241             	208             	209             	885         	12          	130         	0           	Open  	;
 243             	209             	211             	1210        	16          	130         	0           	Open  	;
 245             	211             	213             	990         	16          	130         	0           	Open  	;
 247             	213             	215             	4285        	16          	130         	0           	Open  	;
 249             	215             	217             	1660        	16          	130         	0           	Open  	;
 251             	217             	219             	2050        	14          	130         	0           	Open  	;
 257             	217             	225             	1560        	12          	130         	0           	Open  	;
 261             	213             	229             	2200        	8           	130         	0           	Open  	;
 263             	229             	231             	1960        	12          	130         	0           	Open  	;
 269             	211             	237             	2080        	12          	130         	0           	Open  	;
 271             	237             	229             	790         	8           	130         	0           	Open  	;
 273             	237             	239             	510         	12          	130         	0           	Open  	;
 275             	239             	241             	35          	12          	130         	0           	Open  	;
 277             	241             	243             	2200        	12          	130         	0           	Open  	;
 281             	241             	247             	445         	10          	130         	0           	Open  	;
 283             	239             	249             	430         	12          	130         	0           	Open  	;
 285             	247             	249             	10          	12          	130         	0           	Open  	;
 287             	247             	255             	1390        	10          	130         	0           	Open  	;
 289             	50              	255             	925         	10          	130         	0           	Open  	;
 291             	255             	253             	1100        	10          	130         	0           	Open  	;
 293             	255             	251             	1100        	8           	130         	0           	Open  	;
 295             	249             	251             	1450        	12          	130         	0           	Open  	;
 297             	120             	257             	645         	8           	130         	0           	Open  	;
 299             	257             	259             	350         	8           	130         	0           	Open  	;
 301             	259             	263             	1400        	8           	130         	0           	Open  	;
 303             	257             	261             	1400        	8           	130         	0           	Open  	;
 305             	117             	261             	645         	12          	130         	0           	Open  	;
 307             	261             	263             	350         	12          	130         	0           	Open  	;
 309             	265             	267             	1580        	8           	130         	0           	Open  	;
 311             	193             	267             	1170        	12          	130         	0           	Open  	;
 313             	269             	189             	646         	12          	130         	0           	Open  	;
 315             	181             	271             	260         	24          	130         	0           	Open  	;
 317             	273             	275             	2230        	8           	130         	0           	Open  	;
 319             	273             	205             	645         	12          	130         	0           	Open  	;
 321             	163             	265             	1200        	30          	141         	0           	Open  	;
 323             	201             	275             	300         	12          	130         	0           	Open  	;
 325             	269             	271             	1290        	8           	130         	0           	Open  	;
 329             	61              	123             	45500       	30          	140         	0           	Open  	;
 330             	60              	601             	1           	30          	140         	0           	Closed	;
 333             	601             	61              	1           	30          	140         	0           	Open  	;

[PUMPS]
;ID              	Node1           	Node2           	Parameters
 10              	Lake            	10              	HEAD 1	;
 335             	60              	61              	HEAD 2	;

[VALVES]
;ID              	Node1           	Node2           	Diameter    	Type	Setting     	MinorLoss   

[TAGS]

[DEMANDS]
;Junction        	Demand      	Pattern         	Category

[STATUS]
;ID              	Status/Setting
 10              	Closed

[PATTERNS]
;ID              	Multipliers
;General Default Demand Pattern
 1               	1.295       	1.201       	1.075       	0.923       	0.781       	0.948       
 1               	1.294       	1.101       	0.967       	0.885       	0.803       	0.724       
 1               	0.658       	0.620       	0.652       	0.835       	1.070       	1.440       
 1               	1.723       	1.925       	1.692       	1.303       	1.054       	0.879       
 1               	0.822       	0.831       	0.916       	0.990       	0.989       	1.210       
 1               	1.538       	1.468       	1.358       	1.267       	1.092       	0.909       
 1               	0.851       	0.770       	0.689       	0.804       	1.019       	1.322       
 1               	1.512       	1.524       	1.202       	0.928       	0.759       	0.651       
 1               	0.559       	0.537       	0.711       	0.856       	0.931       	1.146       
 1               	1.369       	1.193       	0.954       	0.809       	0.744       	0.586       
 1               	0.538       	0.503       	0.452       	0.529       	0.672       	0.997       
 1               	1.258       	1.424       	1.371       	1.277       	1.156       	1.019       
 1               	0.873       	0.779       	0.707       	0.674       	0.768       	1.038       
 1               	1.330       	1.202       	0.968       	0.832       	0.752       	0.632       
 1               	0.519       	0.558       	0.656       	0.874       	1.089       	1.479       
 1               	1.672       	1.750       	1.622       	1.352       	1.077       	0.846       
 1               	0.705       	0.679       	0.627       	0.790       	0.857       	1.070       
 1               	1.281       	1.130       	0.847       	0.735       	0.666       	0.562       
 1               	0.522       	0.397       	0.446       	0.722       	1.046       	1.377       
 1               	1.433       	1.423       	1.250       	1.094       	0.970       	0.903       
 1               	0.852       	0.856       	0.930       	1.069       	1.064       	1.216       
 1               	1.352       	1.036       	0.816       	0.766       	0.698       	0.495       
 1               	0.408       	0.409       	0.469       	0.588       	0.723       	0.936       
 1               	1.041       	1.106       	0.974       	0.839       	0.776       	0.720       
 1               	0.665       	0.565       	0.634       	0.723       	0.767       	1.111       
 1               	1.533       	1.460       	1.307       	1.242       	1.126       	0.871       
 1               	0.676       	0.653       	0.778       	0.867       	1.007       	1.281       
 1               	1.474       	1.525       	1.337       	1.162       	0.977       	0.726       
 1               	0.590       	0.524       	0.485       	0.503       	0.535       	0.718       
 1               	1.024       	0.958       	0.757       	0.682       	0.634       	0.591       
 1               	0.533       	0.509       	0.523       	0.747       	0.943       	1.218       
 1               	1.473       	1.607       	1.504       	1.316       	1.065       	0.812       
 1               	0.584       	0.457       	0.478       	0.498       	0.526       	0.707       
 1               	0.990       	0.944       	0.920       	0.895       	0.804       	0.750       
 1               	0.806       	0.843       	0.829       	0.975       	1.104       	1.405       
 1               	1.700       	1.823       	1.735       	1.534       	1.354       	1.066       
 1               	0.872       	0.774       	0.892       	1.046       	1.120       	1.365       
 1               	1.610       	1.455       	1.325       	1.247       	1.161       	0.985       
 1               	0.936       	0.879       	0.992       	1.226       	1.476       	1.745       
 1               	1.949       	2.048       	1.933       	1.705       	1.557       	1.281       
 1               	1.052       	0.868       	0.834       	0.863       	0.966       	1.223       
 1               	1.451       	1.287       	1.151       	1.101       	0.980       	0.815       
 1               	0.800       	0.737       	0.722       	0.892       	1.124       	1.392       
 1               	1.491       	1.655       	1.515       	1.313       	1.056       	0.812       
 1               	0.632       	0.497       	0.445       	0.444       	0.526       	0.749       
 1               	0.983       	0.981       	0.885       	0.870       	0.874       	0.805       
 1               	0.827       	0.756       	0.679       	0.824       	1.026       	1.303       
 1               	1.553       	1.702       	1.554       	1.336       	1.135       	0.968       
 1               	0.938       	0.926       	0.976       	1.146       	1.206       	1.394       
 1               	1.641       	1.594       	1.436       	1.328       	1.167       	0.962       
 1               	0.809       	0.769       	0.784       	0.960       	1.163       	1.334       
 1               	1.547       	1.645       	1.552       	1.255       	1.024       	0.781       
 1               	0.629       	0.600       	0.798       	1.010       	1.082       	1.170       
 1               	1.332       	1.154       	0.968       	0.884       	0.751       	0.605       
 1               	0.489       	0.441       	0.466       	0.601       	0.776       	1.020       
 1               	1.189       	1.302       	1.244       	1.063       	0.977       	0.749       
 1               	0.619       	0.555       	0.584       	0.687       	0.775       	1.047       
 1               	1.262       	1.122       	0.969       	0.881       	0.796       	0.625       
 1               	0.547       	0.460       	0.535       	0.807       	1.047       	1.190       
 1               	1.390       	1.540       	1.480       	1.292       	1.244       	1.227       
 1               	1.254       	1.211       	1.079       	1.061       	1.097       	1.340       
 1               	1.611       	1.512       	1.271       	1.080       	1.027       	0.984       
 1               	0.927       	0.911       	1.026       	1.111       	1.163       	1.336       
 1               	1.513       	1.653       	1.531       	1.345       	1.174       	1.061       
 1               	1.028       	0.955       	0.934       	0.867       	0.760       	0.884       
 1               	1.150       	1.031       	0.873       	0.816       	0.787       	0.752       
 1               	0.748       	0.792       	0.850       	0.941       	1.106       	1.349       
 1               	1.529       	1.613       	1.442       	1.236       	1.048       	0.867       
 1               	0.852       	0.905       	1.066       	1.251       	1.305       	1.493       
 1               	1.665       	1.516       	1.320       	1.161       	0.945       	0.697       
 1               	0.665       	0.650       	0.614       	0.797       	0.996       	1.235       
 1               	1.491       	1.576       	1.350       	1.113       	0.982       	0.818       
 1               	0.659       	0.576       	0.641       	0.746       	0.861       	1.136       
 1               	1.430       	1.318       	1.087       	0.879       	0.801       	0.698       
 1               	0.787       	0.881       	0.964       	1.166       	1.214       	1.446       
 1               	1.697       	1.879       	1.663       	1.357       	1.219       	0.981       
 1               	0.858       	0.682       	0.717       	0.710       	0.732       	1.040       
 1               	1.427       	1.302       	1.086       	1.048       	0.968       	0.852       
 1               	0.843       	0.891       	0.903       	1.020       	1.143       	1.352       
 1               	1.533       	1.601       	1.444       	1.304       	1.277       	1.167       
 1               	1.063       	0.936       	0.886       	0.941       	0.966       	1.200       
 1               	1.489       	1.363       	1.192       	1.092       	0.995       	0.851       
 1               	0.794       	0.763       	0.691       	0.761       	0.852       	1.030       
 1               	1.187       	1.301       	1.198       	1.084       	1.022       	0.906       
;NorthWestRegion-vanZyletAl_network
 pat2            	1.227       	1.130       	1.037       	0.888       	0.783       	1.006       
 pat2            	1.303       	1.122       	0.988       	0.996       	0.834       	0.798       
 pat2            	0.697       	0.627       	0.784       	0.950       	1.127       	1.475       
 pat2            	1.604       	1.663       	1.506       	1.224       	0.946       	0.833       
 pat2            	0.755       	0.760       	0.878       	0.956       	0.991       	1.268       
 pat2            	1.546       	1.489       	1.379       	1.378       	1.124       	0.983       
 pat2            	0.890       	0.776       	0.821       	0.918       	1.076       	1.357       
 pat2            	1.392       	1.261       	1.016       	0.850       	0.652       	0.605       
 pat2            	0.491       	0.467       	0.673       	0.822       	0.933       	1.204       
 pat2            	1.377       	1.214       	0.975       	0.920       	0.776       	0.661       
 pat2            	0.577       	0.509       	0.584       	0.643       	0.729       	1.032       